! Greenfield Municipal Center — Baseline Model
! 62,000 sq ft (5,760 m2), 2-story mixed-use government building
! Location: Mid-Atlantic US (Washington Dulles TMY3 — proxy for Baltimore)
! Vintage: ~1995 construction, no prior retrofits
! Purpose: Generate 5P change-point baseline data for CMVP Capstone Project
!
! Zones: WingA_Office, WingB_Library, WingC_DataCenter, CommonAreas
! HVAC: Constant volume AHUs with gas boiler + air-cooled chiller
!
! Units: SI (EnergyPlus default)
!   Areas in m2, temperatures in C, power in W

  Version,25.1;

!-   ===========  ALL OBJECTS IN CLASS: BUILDING ===========

  Building,
    Greenfield Municipal Center,  !- Name
    0.,                      !- North Axis {deg} (long axis E-W)
    Suburbs,                 !- Terrain
    0.04,                    !- Loads Convergence Tolerance Value {W}
    0.4,                     !- Temperature Convergence Tolerance Value {deltaC}
    FullExterior,            !- Solar Distribution
    25,                      !- Maximum Number of Warmup Days
    6;                       !- Minimum Number of Warmup Days

  Timestep,4;

  SurfaceConvectionAlgorithm:Inside,TARP;
  SurfaceConvectionAlgorithm:Outside,DOE-2;
  HeatBalanceAlgorithm,ConductionTransferFunction;

  GlobalGeometryRules,
    UpperLeftCorner,         !- Starting Vertex Position
    CounterClockWise,        !- Vertex Entry Direction
    World;                   !- Coordinate System

!-   ===========  SIMULATION CONTROL ===========

  SimulationControl,
    Yes,                     !- Do Zone Sizing Calculation
    Yes,                     !- Do System Sizing Calculation
    Yes,                     !- Do Plant Sizing Calculation
    No,                      !- Run Simulation for Sizing Periods
    Yes,                     !- Run Simulation for Weather File Run Periods
    No,                      !- Do HVAC Sizing Simulation for Sizing Periods
    1;                       !- Maximum Number of HVAC Sizing Simulation Passes

!-   ===========  RUN PERIOD ===========

  RunPeriod,
    Annual Run,              !- Name
    1,                       !- Begin Month
    1,                       !- Begin Day of Month
    ,                        !- Begin Year
    12,                      !- End Month
    31,                      !- End Day of Month
    ,                        !- End Year
    Tuesday,                 !- Day of Week for Start Day
    Yes,                     !- Use Weather File Holidays and Special Days
    Yes,                     !- Use Weather File Daylight Saving Period
    No,                      !- Apply Weekend Holiday Rule
    Yes,                     !- Use Weather File Rain Indicators
    Yes;                     !- Use Weather File Snow Indicators

!-   ===========  SITE LOCATION ===========

  Site:Location,
    Washington Dc Dulles IntL Ar_VA_USA,  !- Name
    38.98,                   !- Latitude {deg}
    -77.47,                  !- Longitude {deg}
    -5.00,                   !- Time Zone {hr}
    82.00;                   !- Elevation {m}

!-   ===========  DESIGN DAYS ===========

  SizingPeriod:DesignDay,
    Washington Dulles Ann Htg 99% Condns DB,  !- Name
    1,                       !- Month
    21,                      !- Day of Month
    WinterDesignDay,         !- Day Type
    -9,                      !- Maximum Dry-Bulb Temperature {C}
    0.0,                     !- Daily Dry-Bulb Temperature Range {C}
    DefaultMultipliers,      !- Dry-Bulb Temperature Range Modifier Type
    ,                        !- Dry-Bulb Temperature Range Modifier Schedule Name
    Wetbulb,                 !- Humidity Condition Type
    -9,                      !- Wetbulb at Maximum Dry-Bulb {C}
    ,                        !- Humidity Indicating Day Schedule Name
    ,                        !- Humidity Ratio at Maximum Dry-Bulb {kgWater/kgDryAir}
    ,                        !- Enthalpy at Maximum Dry-Bulb {J/kg}
    ,                        !- Daily Wet-Bulb Temperature Range {deltaC}
    100344.,                 !- Barometric Pressure {Pa}
    2.7,                     !- Wind Speed {m/s}
    310,                     !- Wind Direction {Degrees; N=0, S=180}
    No,                      !- Rain {Yes/No}
    No,                      !- Snow on ground {Yes/No}
    No,                      !- Daylight Savings Time Indicator
    ASHRAEClearSky,          !- Solar Model Indicator
    ,                        !- Beam Solar Day Schedule Name
    ,                        !- Diffuse Solar Day Schedule Name
    ,                        !- ASHRAE Clear Sky Optical Depth for Beam Irradiance (taub)
    ,                        !- ASHRAE Clear Sky Optical Depth for Diffuse Irradiance (taud)
    0.00;                    !- Clearness {0.0 to 1.1}

  SizingPeriod:DesignDay,
    Washington Dulles Ann Clg 1% Condns DB=>MWB,  !- Name
    7,                       !- Month
    21,                      !- Day of Month
    SummerDesignDay,         !- Day Type
    32.7,                    !- Maximum Dry-Bulb Temperature {C}
    11.4,                    !- Daily Dry-Bulb Temperature Range {C}
    DefaultMultipliers,      !- Dry-Bulb Temperature Range Modifier Type
    ,                        !- Dry-Bulb Temperature Range Modifier Schedule Name
    Wetbulb,                 !- Humidity Condition Type
    23.5,                    !- Wetbulb at Maximum Dry-Bulb {C}
    ,                        !- Humidity Indicating Day Schedule Name
    ,                        !- Humidity Ratio at Maximum Dry-Bulb {kgWater/kgDryAir}
    ,                        !- Enthalpy at Maximum Dry-Bulb {J/kg}
    ,                        !- Daily Wet-Bulb Temperature Range {deltaC}
    100344.,                 !- Barometric Pressure {Pa}
    4,                       !- Wind Speed {m/s}
    290,                     !- Wind Direction {Degrees; N=0, S=180}
    No,                      !- Rain {Yes/No}
    No,                      !- Snow on ground {Yes/No}
    No,                      !- Daylight Savings Time Indicator
    ASHRAETau,               !- Solar Model Indicator
    ,                        !- Beam Solar Day Schedule Name
    ,                        !- Diffuse Solar Day Schedule Name
    0.544,                   !- ASHRAE Clear Sky Optical Depth for Beam Irradiance (taub)
    1.787;                   !- ASHRAE Clear Sky Optical Depth for Diffuse Irradiance (taud)

!-   ===========  SCHEDULE TYPE LIMITS ===========

  ScheduleTypeLimits,
    Any Number;              !- Name

  ScheduleTypeLimits,
    Fraction,                !- Name
    0.0,                     !- Lower Limit Value
    1.0,                     !- Upper Limit Value
    CONTINUOUS;              !- Numeric Type

  ScheduleTypeLimits,
    Temperature,             !- Name
    -60,                     !- Lower Limit Value
    200,                     !- Upper Limit Value
    CONTINUOUS,              !- Numeric Type
    Temperature;             !- Unit Type

  ScheduleTypeLimits,
    On/Off,                  !- Name
    0,                       !- Lower Limit Value
    1,                       !- Upper Limit Value
    DISCRETE;                !- Numeric Type

  ScheduleTypeLimits,
    Control Type,            !- Name
    0,                       !- Lower Limit Value
    4,                       !- Upper Limit Value
    DISCRETE;                !- Numeric Type

!-   ===========  SCHEDULES ===========
! Office occupancy/operation: M-F 7am-6pm (occupied), some evening/weekend activity
! Library: M-Sat 8am-9pm, Sun 12-5pm
! Data center: 24/7
! Common areas: M-F 6am-10pm, Sat 7am-10pm

! --- OFFICE SCHEDULES (Wing A) ---

  Schedule:Compact,
    Office Occ Schedule,     !- Name
    Fraction,                !- Schedule Type Limits Name
    Through: 12/31,          !- Field 1
    For: Weekdays,           !- Field 2
    Until: 7:00, 0.0,        !- Field 3-4
    Until: 8:00, 0.5,        !- ramp up
    Until: 12:00, 1.0,       !- full occupancy
    Until: 13:00, 0.8,       !- lunch
    Until: 17:00, 1.0,       !- afternoon
    Until: 18:00, 0.5,       !- wind down
    Until: 20:00, 0.10,      !- evening stragglers
    Until: 24:00, 0.0,       !- overnight
    For: Saturday,           !- Field 14
    Until: 8:00, 0.0,        !-
    Until: 13:00, 0.15,      !- some weekend work
    Until: 17:00, 0.10,      !-
    Until: 24:00, 0.0,       !-
    For: SummerDesignDay,    !-
    Until: 24:00, 1.0,       !-
    For: WinterDesignDay,    !-
    Until: 24:00, 1.0,       !-
    For: AllOtherDays,       !-
    Until: 24:00, 0.0;       !-

  Schedule:Compact,
    Office Light Schedule,   !- Name
    Fraction,                !- Schedule Type Limits Name
    Through: 12/31,          !- Field 1
    For: Weekdays,           !- Field 2
    Until: 7:00, 0.05,       !- night lights
    Until: 8:00, 0.7,        !- ramp up
    Until: 18:00, 1.0,       !- full on
    Until: 20:00, 0.3,       !- cleaning crew
    Until: 24:00, 0.05,      !- night lights
    For: Saturday,           !-
    Until: 8:00, 0.05,       !-
    Until: 13:00, 0.3,       !-
    Until: 17:00, 0.15,      !-
    Until: 24:00, 0.05,      !-
    For: SummerDesignDay,    !-
    Until: 24:00, 1.0,       !-
    For: WinterDesignDay,    !-
    Until: 24:00, 1.0,       !-
    For: AllOtherDays,       !-
    Until: 24:00, 0.05;      !-

  Schedule:Compact,
    Office Equip Schedule,   !- Name
    Fraction,                !- Schedule Type Limits Name
    Through: 12/31,          !- Field 1
    For: Weekdays,           !- Field 2
    Until: 7:00, 0.30,       !- standby
    Until: 8:00, 0.7,        !- ramp up
    Until: 17:00, 1.0,       !- full on
    Until: 18:00, 0.7,       !-
    Until: 24:00, 0.30,      !- standby overnight
    For: Saturday,           !-
    Until: 8:00, 0.30,       !-
    Until: 13:00, 0.5,       !-
    Until: 24:00, 0.30,      !-
    For: SummerDesignDay,    !-
    Until: 24:00, 1.0,       !-
    For: WinterDesignDay,    !-
    Until: 24:00, 1.0,       !-
    For: AllOtherDays,       !-
    Until: 24:00, 0.30;      !-

! --- LIBRARY SCHEDULES (Wing B) ---

  Schedule:Compact,
    Library Occ Schedule,    !- Name
    Fraction,                !- Schedule Type Limits Name
    Through: 12/31,          !- Field 1
    For: Weekdays,           !- Field 2
    Until: 8:00, 0.0,        !-
    Until: 9:00, 0.3,        !- opening
    Until: 12:00, 0.7,       !-
    Until: 14:00, 1.0,       !- peak afternoon
    Until: 17:00, 0.9,       !-
    Until: 20:00, 0.6,       !- evening
    Until: 21:00, 0.3,       !- winding down
    Until: 24:00, 0.0,       !-
    For: Saturday,           !-
    Until: 8:00, 0.0,        !-
    Until: 9:00, 0.2,        !-
    Until: 12:00, 0.8,       !-
    Until: 17:00, 1.0,       !- Saturday peak
    Until: 20:00, 0.6,       !-
    Until: 21:00, 0.2,       !-
    Until: 24:00, 0.0,       !-
    For: Sunday,             !-
    Until: 12:00, 0.0,       !-
    Until: 13:00, 0.3,       !-
    Until: 16:00, 0.6,       !- Sunday afternoon
    Until: 17:00, 0.3,       !-
    Until: 24:00, 0.0,       !-
    For: SummerDesignDay,    !-
    Until: 24:00, 1.0,       !-
    For: WinterDesignDay,    !-
    Until: 24:00, 1.0,       !-
    For: AllOtherDays,       !-
    Until: 24:00, 0.0;       !-

  Schedule:Compact,
    Library Light Schedule,  !- Name
    Fraction,                !- Schedule Type Limits Name
    Through: 12/31,          !- Field 1
    For: Weekdays,           !- Field 2
    Until: 8:00, 0.05,       !-
    Until: 9:00, 0.7,        !-
    Until: 21:00, 1.0,       !- on during library hours
    Until: 22:00, 0.3,       !- cleaning
    Until: 24:00, 0.05,      !-
    For: Saturday,           !-
    Until: 8:00, 0.05,       !-
    Until: 9:00, 0.7,        !-
    Until: 21:00, 1.0,       !-
    Until: 22:00, 0.3,       !-
    Until: 24:00, 0.05,      !-
    For: Sunday,             !-
    Until: 12:00, 0.05,      !-
    Until: 13:00, 0.7,       !-
    Until: 17:00, 1.0,       !-
    Until: 18:00, 0.3,       !-
    Until: 24:00, 0.05,      !-
    For: SummerDesignDay,    !-
    Until: 24:00, 1.0,       !-
    For: WinterDesignDay,    !-
    Until: 24:00, 1.0,       !-
    For: AllOtherDays,       !-
    Until: 24:00, 0.05;      !-

  Schedule:Compact,
    Library Equip Schedule,  !- Name
    Fraction,                !- Schedule Type Limits Name
    Through: 12/31,          !- Field 1
    For: Weekdays,           !- Field 2
    Until: 8:00, 0.10,       !- standby
    Until: 9:00, 0.5,        !-
    Until: 21:00, 1.0,       !-
    Until: 24:00, 0.10,      !-
    For: Saturday,           !-
    Until: 8:00, 0.10,       !-
    Until: 9:00, 0.5,        !-
    Until: 21:00, 1.0,       !-
    Until: 24:00, 0.10,      !-
    For: Sunday,             !-
    Until: 12:00, 0.10,      !-
    Until: 13:00, 0.5,       !-
    Until: 17:00, 0.8,       !-
    Until: 24:00, 0.10,      !-
    For: SummerDesignDay,    !-
    Until: 24:00, 1.0,       !-
    For: WinterDesignDay,    !-
    Until: 24:00, 1.0,       !-
    For: AllOtherDays,       !-
    Until: 24:00, 0.10;      !-

! --- DATA CENTER SCHEDULE (Wing C) --- 24/7 constant

  Schedule:Compact,
    DataCenter Always On,    !- Name
    Fraction,                !- Schedule Type Limits Name
    Through: 12/31,          !- Field 1
    For: AllDays,            !- Field 2
    Until: 24:00, 1.0;       !-

! --- COMMON AREA SCHEDULES ---

  Schedule:Compact,
    Common Occ Schedule,     !- Name
    Fraction,                !- Schedule Type Limits Name
    Through: 12/31,          !- Field 1
    For: Weekdays,           !- Field 2
    Until: 6:00, 0.0,        !-
    Until: 7:00, 0.2,        !-
    Until: 8:00, 0.5,        !-
    Until: 9:00, 0.3,        !- after arrival rush
    Until: 12:00, 0.2,       !-
    Until: 13:00, 0.4,       !- lunch traffic
    Until: 17:00, 0.2,       !-
    Until: 18:00, 0.5,       !- departure rush
    Until: 22:00, 0.1,       !-
    Until: 24:00, 0.0,       !-
    For: Saturday,           !-
    Until: 7:00, 0.0,        !-
    Until: 10:00, 0.15,      !-
    Until: 17:00, 0.1,       !-
    Until: 22:00, 0.05,      !-
    Until: 24:00, 0.0,       !-
    For: SummerDesignDay,    !-
    Until: 24:00, 1.0,       !-
    For: WinterDesignDay,    !-
    Until: 24:00, 1.0,       !-
    For: AllOtherDays,       !-
    Until: 24:00, 0.0;       !-

  Schedule:Compact,
    Common Light Schedule,   !- Name
    Fraction,                !- Schedule Type Limits Name
    Through: 12/31,          !- Field 1
    For: Weekdays,           !- Field 2
    Until: 6:00, 0.10,       !- security lighting
    Until: 7:00, 0.5,        !-
    Until: 22:00, 1.0,       !-
    Until: 24:00, 0.10,      !-
    For: Saturday,           !-
    Until: 7:00, 0.10,       !-
    Until: 22:00, 0.8,       !-
    Until: 24:00, 0.10,      !-
    For: SummerDesignDay,    !-
    Until: 24:00, 1.0,       !-
    For: WinterDesignDay,    !-
    Until: 24:00, 1.0,       !-
    For: AllOtherDays,       !-
    Until: 24:00, 0.10;      !-

  Schedule:Compact,
    Common Equip Schedule,   !- Name
    Fraction,                !- Schedule Type Limits Name
    Through: 12/31,          !- Field 1
    For: Weekdays,           !- Field 2
    Until: 6:00, 0.20,       !-
    Until: 22:00, 1.0,       !-
    Until: 24:00, 0.20,      !-
    For: Saturday,           !-
    Until: 7:00, 0.20,       !-
    Until: 22:00, 0.8,       !-
    Until: 24:00, 0.20,      !-
    For: SummerDesignDay,    !-
    Until: 24:00, 1.0,       !-
    For: WinterDesignDay,    !-
    Until: 24:00, 1.0,       !-
    For: AllOtherDays,       !-
    Until: 24:00, 0.20;      !-

! --- HVAC OPERATION SCHEDULES ---

  Schedule:Compact,
    Office HVAC Avail,       !- Name
    On/Off,                  !- Schedule Type Limits Name
    Through: 12/31,          !- Field 1
    For: Weekdays,           !- Field 2
    Until: 6:00, 0,          !- off
    Until: 20:00, 1,         !- on (1hr early start, 2hr late stop)
    Until: 24:00, 0,         !-
    For: Saturday,           !-
    Until: 7:00, 0,          !-
    Until: 18:00, 1,         !-
    Until: 24:00, 0,         !-
    For: SummerDesignDay,    !-
    Until: 24:00, 1,         !-
    For: WinterDesignDay,    !-
    Until: 24:00, 1,         !-
    For: AllOtherDays,       !-
    Until: 24:00, 0;         !-

  Schedule:Compact,
    Library HVAC Avail,      !- Name
    On/Off,                  !- Schedule Type Limits Name
    Through: 12/31,          !- Field 1
    For: Weekdays,           !- Field 2
    Until: 7:00, 0,          !-
    Until: 22:00, 1,         !- 1hr early, 1hr late
    Until: 24:00, 0,         !-
    For: Saturday,           !-
    Until: 7:00, 0,          !-
    Until: 22:00, 1,         !-
    Until: 24:00, 0,         !-
    For: Sunday,             !-
    Until: 11:00, 0,         !-
    Until: 18:00, 1,         !-
    Until: 24:00, 0,         !-
    For: SummerDesignDay,    !-
    Until: 24:00, 1,         !-
    For: WinterDesignDay,    !-
    Until: 24:00, 1,         !-
    For: AllOtherDays,       !-
    Until: 24:00, 0;         !-

  Schedule:Compact,
    Always On,               !- Name
    On/Off,                  !- Schedule Type Limits Name
    Through: 12/31,          !- Field 1
    For: AllDays,            !- Field 2
    Until: 24:00, 1;         !-

  Schedule:Compact,
    Always Off,              !- Name
    On/Off,                  !- Schedule Type Limits Name
    Through: 12/31,          !- Field 1
    For: AllDays,            !- Field 2
    Until: 24:00, 0;         !-

! --- THERMOSTAT SCHEDULES ---

  Schedule:Compact,
    Office Heating Setpoint, !- Name
    Temperature,             !- Schedule Type Limits Name
    Through: 12/31,          !- Field 1
    For: Weekdays,           !- Field 2
    Until: 6:00, 15.6,       !- 60F unoccupied
    Until: 20:00, 21.1,      !- 70F occupied
    Until: 24:00, 15.6,      !-
    For: Saturday,           !-
    Until: 7:00, 15.6,       !-
    Until: 18:00, 21.1,      !-
    Until: 24:00, 15.6,      !-
    For: SummerDesignDay,    !-
    Until: 24:00, 21.1,      !-
    For: WinterDesignDay,    !-
    Until: 24:00, 21.1,      !-
    For: AllOtherDays,       !-
    Until: 24:00, 15.6;      !-

  Schedule:Compact,
    Office Cooling Setpoint, !- Name
    Temperature,             !- Schedule Type Limits Name
    Through: 12/31,          !- Field 1
    For: Weekdays,           !- Field 2
    Until: 6:00, 29.4,       !- 85F unoccupied
    Until: 20:00, 23.3,      !- 74F occupied
    Until: 24:00, 29.4,      !-
    For: Saturday,           !-
    Until: 7:00, 29.4,       !-
    Until: 18:00, 23.3,      !-
    Until: 24:00, 29.4,      !-
    For: SummerDesignDay,    !-
    Until: 24:00, 23.3,      !-
    For: WinterDesignDay,    !-
    Until: 24:00, 23.3,      !-
    For: AllOtherDays,       !-
    Until: 24:00, 29.4;      !-

  Schedule:Compact,
    Library Heating Setpoint,!- Name
    Temperature,             !- Schedule Type Limits Name
    Through: 12/31,          !- Field 1
    For: Weekdays,           !- Field 2
    Until: 7:00, 15.6,       !-
    Until: 22:00, 21.1,      !-
    Until: 24:00, 15.6,      !-
    For: Saturday,           !-
    Until: 7:00, 15.6,       !-
    Until: 22:00, 21.1,      !-
    Until: 24:00, 15.6,      !-
    For: Sunday,             !-
    Until: 11:00, 15.6,      !-
    Until: 18:00, 21.1,      !-
    Until: 24:00, 15.6,      !-
    For: SummerDesignDay,    !-
    Until: 24:00, 21.1,      !-
    For: WinterDesignDay,    !-
    Until: 24:00, 21.1,      !-
    For: AllOtherDays,       !-
    Until: 24:00, 15.6;      !-

  Schedule:Compact,
    Library Cooling Setpoint,!- Name
    Temperature,             !- Schedule Type Limits Name
    Through: 12/31,          !- Field 1
    For: Weekdays,           !- Field 2
    Until: 7:00, 29.4,       !-
    Until: 22:00, 23.3,      !-
    Until: 24:00, 29.4,      !-
    For: Saturday,           !-
    Until: 7:00, 29.4,       !-
    Until: 22:00, 23.3,      !-
    Until: 24:00, 29.4,      !-
    For: Sunday,             !-
    Until: 11:00, 29.4,      !-
    Until: 18:00, 23.3,      !-
    Until: 24:00, 29.4,      !-
    For: SummerDesignDay,    !-
    Until: 24:00, 23.3,      !-
    For: WinterDesignDay,    !-
    Until: 24:00, 23.3,      !-
    For: AllOtherDays,       !-
    Until: 24:00, 29.4;      !-

  Schedule:Compact,
    DataCenter Heating Setpoint,  !- Name
    Temperature,             !- Schedule Type Limits Name
    Through: 12/31,          !- Field 1
    For: AllDays,            !- Field 2
    Until: 24:00, 20.0;      !- 68F year-round

  Schedule:Compact,
    DataCenter Cooling Setpoint,  !- Name
    Temperature,             !- Schedule Type Limits Name
    Through: 12/31,          !- Field 1
    For: AllDays,            !- Field 2
    Until: 24:00, 20.0;      !- 68F year-round

  Schedule:Compact,
    Common Heating Setpoint, !- Name
    Temperature,             !- Schedule Type Limits Name
    Through: 12/31,          !- Field 1
    For: Weekdays,           !- Field 2
    Until: 6:00, 15.6,       !-
    Until: 22:00, 21.1,      !-
    Until: 24:00, 15.6,      !-
    For: Saturday,           !-
    Until: 7:00, 15.6,       !-
    Until: 22:00, 21.1,      !-
    Until: 24:00, 15.6,      !-
    For: SummerDesignDay,    !-
    Until: 24:00, 21.1,      !-
    For: WinterDesignDay,    !-
    Until: 24:00, 21.1,      !-
    For: AllOtherDays,       !-
    Until: 24:00, 15.6;      !-

  Schedule:Compact,
    Common Cooling Setpoint, !- Name
    Temperature,             !- Schedule Type Limits Name
    Through: 12/31,          !- Field 1
    For: Weekdays,           !- Field 2
    Until: 6:00, 29.4,       !-
    Until: 22:00, 23.3,      !-
    Until: 24:00, 29.4,      !-
    For: Saturday,           !-
    Until: 7:00, 29.4,       !-
    Until: 22:00, 23.3,      !-
    Until: 24:00, 29.4,      !-
    For: SummerDesignDay,    !-
    Until: 24:00, 23.3,      !-
    For: WinterDesignDay,    !-
    Until: 24:00, 23.3,      !-
    For: AllOtherDays,       !-
    Until: 24:00, 29.4;      !-

! --- THERMOSTAT SETPOINT DUAL SETPOINT OBJECTS ---

  Schedule:Compact,
    Dual Setpoint Control Type Sched,  !- Name
    Control Type,            !- Schedule Type Limits Name
    Through: 12/31,          !- Field 1
    For: AllDays,            !- Field 2
    Until: 24:00, 4;         !- 4 = Dual Setpoint with Deadband

! --- ACTIVITY LEVEL SCHEDULE (131W/person = typical office) ---

  Schedule:Compact,
    Activity Schedule,       !- Name
    Any Number,              !- Schedule Type Limits Name
    Through: 12/31,          !- Field 1
    For: AllDays,            !- Field 2
    Until: 24:00, 120;       !- W/person (office activity)

! --- DHW GAS SCHEDULE (constant draw) ---

  Schedule:Compact,
    DHW Schedule,            !- Name
    Fraction,                !- Schedule Type Limits Name
    Through: 12/31,          !- Field 1
    For: Weekdays,           !- Field 2
    Until: 6:00, 0.1,        !-
    Until: 9:00, 0.8,        !-
    Until: 12:00, 0.5,       !-
    Until: 13:00, 0.9,       !- lunch
    Until: 17:00, 0.5,       !-
    Until: 20:00, 0.3,       !-
    Until: 24:00, 0.1,       !-
    For: Saturday,           !-
    Until: 8:00, 0.1,        !-
    Until: 18:00, 0.4,       !-
    Until: 24:00, 0.1,       !-
    For: SummerDesignDay,    !-
    Until: 24:00, 1.0,       !-
    For: WinterDesignDay,    !-
    Until: 24:00, 1.0,       !-
    For: AllOtherDays,       !-
    Until: 24:00, 0.1;       !-

! --- INFILTRATION SCHEDULE ---

  Schedule:Compact,
    Infiltration Schedule,   !- Name
    Fraction,                !- Schedule Type Limits Name
    Through: 12/31,          !- Field 1
    For: Weekdays,           !- Field 2
    Until: 6:00, 1.0,        !- full infiltration when HVAC off (no pressurization)
    Until: 20:00, 0.5,       !- reduced when HVAC on (building pressurized)
    Until: 24:00, 1.0,       !-
    For: Saturday,           !-
    Until: 7:00, 1.0,        !-
    Until: 18:00, 0.5,       !-
    Until: 24:00, 1.0,       !-
    For: SummerDesignDay,    !-
    Until: 24:00, 0.5,       !-
    For: WinterDesignDay,    !-
    Until: 24:00, 1.0,       !-
    For: AllOtherDays,       !-
    Until: 24:00, 1.0;       !-

!-   ===========  MATERIALS ===========

! --- EXTERIOR WALL: Brick veneer + steel stud + R-11 batt + gypboard ---
! Target assembly U ~ 0.37 W/m2-K (R-11 with steel stud thermal bridging)

  Material,
    Brick Veneer,            !- Name
    MediumRough,             !- Roughness
    0.1016,                  !- Thickness {m} (4 inches)
    0.89,                    !- Conductivity {W/m-K}
    1920,                    !- Density {kg/m3}
    790,                     !- Specific Heat {J/kg-K}
    0.9,                     !- Thermal Absorptance
    0.7,                     !- Solar Absorptance
    0.7;                     !- Visible Absorptance

  Material,
    R-11 Batt Insulation,   !- Name
    MediumSmooth,            !- Roughness
    0.09,                    !- Thickness {m} (3.5 inches)
    0.049,                   !- Conductivity {W/m-K} (accounts for steel stud bridging)
    12,                      !- Density {kg/m3}
    840,                     !- Specific Heat {J/kg-K}
    0.9,                     !- Thermal Absorptance
    0.5,                     !- Solar Absorptance
    0.5;                     !- Visible Absorptance

  Material,
    Gypsum Board,            !- Name
    MediumSmooth,            !- Roughness
    0.0159,                  !- Thickness {m} (5/8 inch)
    0.16,                    !- Conductivity {W/m-K}
    800,                     !- Density {kg/m3}
    1090,                    !- Specific Heat {J/kg-K}
    0.9,                     !- Thermal Absorptance
    0.5,                     !- Solar Absorptance
    0.5;                     !- Visible Absorptance

! --- ROOF: Built-up roof + R-15 insulation + concrete deck ---
! Target assembly R ~ 15 ft2-F-hr/Btu = R-2.64 m2-K/W

  Material,
    Roof Membrane,           !- Name
    VeryRough,               !- Roughness
    0.0095,                  !- Thickness {m}
    0.16,                    !- Conductivity {W/m-K}
    1120,                    !- Density {kg/m3}
    1460,                    !- Specific Heat {J/kg-K}
    0.9,                     !- Thermal Absorptance
    0.7,                     !- Solar Absorptance
    0.7;                     !- Visible Absorptance

  Material,
    Roof Insulation R15,     !- Name
    MediumRough,             !- Roughness
    0.110,                   !- Thickness {m} (~4.3 inches)
    0.042,                   !- Conductivity {W/m-K}
    32,                      !- Density {kg/m3}
    830,                     !- Specific Heat {J/kg-K}
    0.9,                     !- Thermal Absorptance
    0.5,                     !- Solar Absorptance
    0.5;                     !- Visible Absorptance

  Material,
    Concrete Deck,           !- Name
    MediumRough,             !- Roughness
    0.1016,                  !- Thickness {m} (4 inches)
    1.31,                    !- Conductivity {W/m-K}
    2240,                    !- Density {kg/m3}
    836,                     !- Specific Heat {J/kg-K}
    0.9,                     !- Thermal Absorptance
    0.6,                     !- Solar Absorptance
    0.6;                     !- Visible Absorptance

! --- FLOOR: Slab on grade (simplified) ---

  Material,
    Concrete Slab,           !- Name
    MediumRough,             !- Roughness
    0.2032,                  !- Thickness {m} (8 inches)
    1.31,                    !- Conductivity {W/m-K}
    2240,                    !- Density {kg/m3}
    836,                     !- Specific Heat {J/kg-K}
    0.9,                     !- Thermal Absorptance
    0.6,                     !- Solar Absorptance
    0.6;                     !- Visible Absorptance

! --- CEILING TILE ---

  Material,
    Ceiling Tile,            !- Name
    MediumSmooth,            !- Roughness
    0.019,                   !- Thickness {m}
    0.06,                    !- Conductivity {W/m-K}
    368,                     !- Density {kg/m3}
    590,                     !- Specific Heat {J/kg-K}
    0.9,                     !- Thermal Absorptance
    0.5,                     !- Solar Absorptance
    0.5;                     !- Visible Absorptance

  Material:AirGap,
    Wall Air Gap,            !- Name
    0.15;                    !- Thermal Resistance {m2-K/W}

  Material:AirGap,
    Ceiling Air Gap,         !- Name
    0.18;                    !- Thermal Resistance {m2-K/W}

!-   ===========  CONSTRUCTIONS ===========

  Construction,
    Exterior Wall,           !- Name
    Brick Veneer,            !- Outside Layer
    Wall Air Gap,            !- Layer 2
    R-11 Batt Insulation,   !- Layer 3
    Gypsum Board;            !- Layer 4

  Construction,
    Baseline Roof,           !- Name
    Roof Membrane,           !- Outside Layer
    Roof Insulation R15,     !- Layer 2
    Concrete Deck,           !- Layer 3
    Ceiling Air Gap,         !- Layer 4
    Ceiling Tile;            !- Layer 5

  Construction,
    Ground Floor,            !- Name
    Concrete Slab;           !- Outside Layer

  Construction,
    Interior Wall,           !- Name
    Gypsum Board,            !- Outside Layer